LTspice 26.0.1 for Windows
Circuit: D:\GitHub\Repositorios\IC_VIDA\Simulations\voltage_and_current_sensor\sensor.net
Start Time: Fri Mar 20 23:27:14 2026
solver = Normal
Maximum thread count: 12
tnom = 27
temp = 27
method = trap
Direct Newton iteration succeeded in finding operating point.
Total elapsed time: 0.098 seconds.

Files loaded:
D:\GitHub\Repositorios\IC_VIDA\Simulations\voltage_and_current_sensor\sensor.net
C:\Users\Alexandre\AppData\Local\LTspice\lib\cmp\standard.dio
C:\Users\Alexandre\AppData\Local\LTspice\lib\sub\UniversalOpAmp1.lib

