LTspice 24.1.10 for Windows
Circuit: E:\IC\Monitoramento\monitoramento.net
Start Time: Wed Oct 29 22:05:09 2025
solver = Normal
Maximum thread count: 12
tnom = 27
temp = 27
method = trap
Direct Newton iteration for .op point succeeded.
Total elapsed time: 0.117 seconds.

Files loaded:
E:\IC\Monitoramento\monitoramento.net
C:\Users\Alexandre\AppData\Local\LTspice\lib\cmp\standard.dio
C:\Users\Alexandre\AppData\Local\LTspice\lib\sub\UniversalOpAmp1.lib

